/*--------------------------------*- C++ -*----------------------------------*\
  =========                 |
  \\      /  F ield         | OpenFOAM: The Open Source CFD Toolbox
   \\    /   O peration     | Website:  https://openfoam.org
    \\  /    A nd           | Version:  6
     \\/     M anipulation  |
\*---------------------------------------------------------------------------*/
FoamFile
{
    version     2.0;
    format      ascii;
    class       extendedFeatureEdgeMesh;
    location    "constant/extendedFeatureEdgeMesh";
    object      leftSide.extendedFeatureEdgeMesh;
}
// * * * * * * * * * * * * * * * * * * * * * * * * * * * * * * * * * * * * * //

// points

20
(
(22.571 2.411 1.54)
(22.571 2.411 4.44089e-16)
(1e-06 1e-06 1.54)
(1e-06 1e-06 1)
(7.571 2.411 1.54)
(7.871 2.411 4.44089e-16)
(7.571 2.411 0.0588235)
(2.771 2.11427 1)
(2.071 2.071 1)
(2.071 2.071 1.54)
(1.53499 2.00043 1.54)
(1.53499 2.00043 1)
(1.0355 1.79354 1.54)
(1.0355 1.79354 1)
(0.606583 1.46442 1.54)
(0.606583 1.46442 1)
(0.277462 1.0355 1.54)
(0.277462 1.0355 1)
(0.0705686 0.536015 1.54)
(0.0705686 0.536015 1)
)

// edges

20
(
(4 0)
(0 1)
(1 5)
(5 6)
(7 8)
(9 4)
(6 7)
(10 9)
(8 11)
(12 10)
(11 13)
(14 12)
(13 15)
(16 14)
(15 17)
(18 16)
(17 19)
(2 18)
(19 3)
(3 2)
)

// concaveStart mixedStart nonFeatureStart
0 0 4
// internalStart flatStart openStart multipleStart
0 0 0 20
// normals

18
(
(-0 1 0)
(-0 1 0)
(0 1 0)
(-0.0617004 0.998095 0)
(-0.0617004 0.998095 2.66007e-08)
(-0.0617004 0.998095 0)
(-0.130526 0.991445 0)
(-0.130526 0.991445 0)
(-0.382683 0.92388 0)
(-0.382683 0.92388 0)
(-0.608762 0.793353 0)
(-0.608762 0.793353 0)
(-0.793353 0.608761 0)
(-0.793353 0.608761 0)
(-0.92388 0.382683 0)
(-0.92388 0.382683 0)
(-0.991445 0.130526 0)
(-0.991445 0.130526 0)
)

// normal volume types

18
(
0
0
0
0
0
0
0
0
0
0
0
0
0
0
0
0
0
0
)

// normalDirections

20
(
1(1)
1(1)
1(1)
1(1)
1(1)
1(1)
1(1)
1(1)
1(1)
1(1)
1(1)
1(1)
1(1)
1(1)
1(1)
1(1)
1(1)
1(1)
1(1)
1(1)
)

// edgeNormals

20
(
1(0)
1(1)
1(2)
1(2)
1(3)
1(4)
1(5)
1(6)
1(7)
1(8)
1(9)
1(10)
1(11)
1(12)
1(13)
1(14)
1(15)
1(16)
1(17)
1(17)
)

// featurePointNormals

4
(
1(0)
1(1)
1(16)
1(17)
)

// featurePointEdges

4
(
2(0 1)
2(1 2)
2(17 19)
2(18 19)
)

// regionEdges

20
(
0
1
2
3
4
5
6
7
8
9
10
11
12
13
14
15
16
17
18
19
)



// ************************************************************************* //
