/*--------------------------------*- C++ -*----------------------------------*\
  =========                 |
  \\      /  F ield         | OpenFOAM: The Open Source CFD Toolbox
   \\    /   O peration     | Website:  https://openfoam.org
    \\  /    A nd           | Version:  6
     \\/     M anipulation  |
\*---------------------------------------------------------------------------*/
FoamFile
{
    version     2.0;
    format      ascii;
    class       extendedFeatureEdgeMesh;
    location    "constant/extendedFeatureEdgeMesh";
    object      rightSide.extendedFeatureEdgeMesh;
}
// * * * * * * * * * * * * * * * * * * * * * * * * * * * * * * * * * * * * * //

// points

20
(
(22.571 1.411 1.54)
(22.571 1.411 4.44089e-16)
(0.320001 1e-06 1.54)
(0.320001 1e-06 1)
(2.771 1.70773 1)
(7.571 1.411 0.0588235)
(7.571 1.411 1.54)
(2.071 1.751 1.54)
(2.071 1.751 1)
(7.871 1.411 4.44089e-16)
(0.379665 0.453193 1.54)
(0.379665 0.453193 1)
(0.554591 0.875501 1.54)
(0.554591 0.875501 1)
(0.832857 1.23814 1.54)
(0.832857 1.23814 1)
(1.1955 1.51641 1.54)
(1.1955 1.51641 1)
(1.61781 1.69134 1.54)
(1.61781 1.69134 1)
)

// edges

20
(
(4 5)
(6 7)
(8 4)
(0 6)
(1 0)
(5 9)
(9 1)
(2 3)
(10 2)
(3 11)
(12 10)
(11 13)
(14 12)
(13 15)
(16 14)
(15 17)
(18 16)
(17 19)
(7 18)
(19 8)
)

// concaveStart mixedStart nonFeatureStart
0 0 4
// internalStart flatStart openStart multipleStart
0 0 0 20
// normals

18
(
(-0.0617004 -0.998095 0)
(-0.0617004 -0.998095 -1.44221e-09)
(-0.0617004 -0.998095 0)
(0 -1 0)
(0 -1 -0)
(0 -1 0)
(0.991445 -0.130526 0)
(0.991445 -0.130526 0)
(0.92388 -0.382683 0)
(0.92388 -0.382683 0)
(0.793353 -0.608761 0)
(0.793353 -0.608761 0)
(0.608761 -0.793353 0)
(0.608761 -0.793353 0)
(0.382684 -0.923879 0)
(0.382684 -0.923879 0)
(0.130526 -0.991445 0)
(0.130526 -0.991445 0)
)

// normal volume types

18
(
0
0
0
0
0
0
0
0
0
0
0
0
0
0
0
0
0
0
)

// normalDirections

20
(
1(1)
1(1)
1(1)
1(1)
1(1)
1(1)
1(1)
1(1)
1(1)
1(1)
1(1)
1(1)
1(1)
1(1)
1(1)
1(1)
1(1)
1(1)
1(1)
1(1)
)

// edgeNormals

20
(
1(0)
1(1)
1(2)
1(3)
1(4)
1(5)
1(5)
1(6)
1(6)
1(7)
1(8)
1(9)
1(10)
1(11)
1(12)
1(13)
1(14)
1(15)
1(16)
1(17)
)

// featurePointNormals

4
(
1(3)
1(4)
1(6)
1(6)
)

// featurePointEdges

4
(
2(3 4)
2(4 6)
2(7 8)
2(7 9)
)

// regionEdges

20
(
0
1
2
3
4
5
6
7
8
9
10
11
12
13
14
15
16
17
18
19
)



// ************************************************************************* //
