/*--------------------------------*- C++ -*----------------------------------*\
  =========                 |
  \\      /  F ield         | OpenFOAM: The Open Source CFD Toolbox
   \\    /   O peration     | Website:  https://openfoam.org
    \\  /    A nd           | Version:  6
     \\/     M anipulation  |
\*---------------------------------------------------------------------------*/
FoamFile
{
    version     2.0;
    format      ascii;
    class       polyBoundaryMesh;
    location    "constant/polyMesh";
    object      boundary;
}
// * * * * * * * * * * * * * * * * * * * * * * * * * * * * * * * * * * * * * //

6
(
    inletWater
    {
        type            wall;
        inGroups        1(wall);
        nFaces          104;
        startFace       1107930;
    }
    outletWater
    {
        type            wall;
        inGroups        1(wall);
        nFaces          888;
        startFace       1108034;
    }
    freeSurface
    {
        type            wall;
        inGroups        1(wall);
        nFaces          11285;
        startFace       1108922;
    }
    bedWall
    {
        type            wall;
        inGroups        1(wall);
        nFaces          11282;
        startFace       1120207;
    }
    leftSide
    {
        type            wall;
        inGroups        1(wall);
        nFaces          17243;
        startFace       1131489;
    }
    rightSide
    {
        type            wall;
        inGroups        1(wall);
        nFaces          17113;
        startFace       1148732;
    }
)

// ************************************************************************* //
